Version 4
SHEET 1 3032 680
WIRE 944 -1104 864 -1104
WIRE 864 -1072 864 -1104
WIRE 944 -1040 944 -1104
WIRE 864 -960 864 -992
WIRE -1568 -912 -1712 -912
WIRE -1280 -912 -1568 -912
WIRE -1200 -912 -1280 -912
WIRE -960 -912 -1104 -912
WIRE -816 -912 -960 -912
WIRE -640 -912 -720 -912
WIRE -592 -912 -640 -912
WIRE -480 -912 -512 -912
WIRE -304 -912 -480 -912
WIRE -224 -912 -304 -912
WIRE 560 -912 -224 -912
WIRE 624 -912 560 -912
WIRE 784 -912 704 -912
WIRE 928 -912 880 -912
WIRE -224 -864 -224 -912
WIRE 496 -864 400 -864
WIRE 560 -864 560 -912
WIRE 400 -848 400 -864
WIRE -1712 -832 -1712 -912
WIRE -1568 -800 -1568 -912
WIRE -1120 -784 -1120 -864
WIRE -224 -768 -224 -800
WIRE 928 -768 928 -912
WIRE -1280 -736 -1280 -912
WIRE -1184 -656 -1216 -656
WIRE -1120 -656 -1120 -704
WIRE 560 -656 560 -864
WIRE 848 -656 560 -656
WIRE 960 -656 848 -656
WIRE 976 -656 960 -656
WIRE 1136 -656 1056 -656
WIRE -1216 -624 -1216 -656
WIRE 848 -624 848 -656
WIRE -1392 -608 -1440 -608
WIRE -1280 -608 -1280 -656
WIRE -1280 -608 -1392 -608
WIRE 560 -608 560 -656
WIRE 560 -608 112 -608
WIRE -1280 -592 -1280 -608
WIRE -1120 -592 -1120 -656
WIRE -960 -592 -960 -912
WIRE -800 -592 -800 -864
WIRE -640 -592 -640 -912
WIRE -480 -592 -480 -912
WIRE 560 -576 560 -608
WIRE -1712 -544 -1712 -752
WIRE 368 -528 112 -528
WIRE 848 -528 848 -560
WIRE 848 -528 752 -528
WIRE -1392 -512 -1392 -608
WIRE -1376 -512 -1392 -512
WIRE -352 -512 -384 -512
WIRE -1440 -496 -1440 -544
WIRE 1136 -448 1136 -576
WIRE 1264 -448 1136 -448
WIRE 1456 -448 1328 -448
WIRE 1616 -448 1456 -448
WIRE 1760 -448 1616 -448
WIRE -1568 -432 -1568 -720
WIRE -1376 -432 -1568 -432
WIRE -352 -432 -352 -512
WIRE -352 -432 -384 -432
WIRE -304 -432 -304 -912
WIRE 368 -432 208 -432
WIRE 848 -432 848 -528
WIRE 848 -432 752 -432
WIRE -352 -416 -352 -432
WIRE 208 -416 208 -432
WIRE 1136 -416 1136 -448
WIRE 1456 -384 1456 -448
WIRE -1376 -352 -1568 -352
WIRE -304 -352 -384 -352
WIRE 208 -336 208 -352
WIRE 368 -336 208 -336
WIRE 1088 -336 752 -336
WIRE 1296 -320 1136 -320
WIRE 1456 -320 1296 -320
WIRE 1760 -320 1760 -368
WIRE -1568 -288 -1568 -352
WIRE -720 -256 -720 -272
WIRE 208 -240 208 -336
WIRE 240 -240 208 -240
WIRE 368 -240 320 -240
WIRE 816 -240 752 -240
WIRE 1984 -240 1808 -240
WIRE 2160 -240 2064 -240
WIRE 208 -224 208 -240
WIRE 1296 -192 1296 -320
WIRE -1056 -160 -1056 -272
WIRE -720 -160 -720 -192
WIRE 1760 -160 1760 -224
WIRE 128 -144 16 -144
WIRE 368 -144 128 -144
WIRE 960 -144 960 -656
WIRE 960 -144 752 -144
WIRE 2160 -144 2160 -240
WIRE -1568 -128 -1568 -208
WIRE 368 -48 320 -48
WIRE 1056 -48 1056 -656
WIRE 1056 -48 752 -48
WIRE 16 16 16 -144
WIRE 128 16 128 -64
WIRE 496 32 496 0
WIRE 624 32 624 0
WIRE 624 32 496 32
WIRE 816 32 816 -240
WIRE 816 32 624 32
WIRE 624 48 624 32
WIRE 16 128 16 80
WIRE 80 128 16 128
WIRE 128 128 128 80
WIRE 128 128 80 128
WIRE 496 128 496 32
WIRE 624 128 624 112
WIRE 848 128 848 -432
WIRE 848 128 624 128
WIRE 80 208 80 128
WIRE 320 256 320 -48
WIRE 320 256 176 256
WIRE 1616 256 1616 -448
WIRE 1616 256 400 256
FLAG -1568 -128 0
FLAG -1440 -496 0
FLAG -1216 -624 0
FLAG -1056 -160 0
FLAG -720 -160 0
FLAG -224 -768 0
FLAG -304 -272 0
FLAG -352 -416 0
FLAG -1712 -544 0
FLAG 496 128 0
FLAG 1296 -192 0
FLAG 208 -224 0
FLAG 176 336 0
FLAG 80 208 0
FLAG 400 -848 0
FLAG 928 -768 0
FLAG 944 -1040 0
FLAG 2160 -144 0
FLAG 1760 -160 0
SYMBOL SpecialFunctions\\LTC4364-2 -880 -432 R0
SYMATTR InstName U1
SYMBOL cap -736 -256 R0
SYMATTR InstName C1
SYMATTR Value .22µ
SYMBOL res -1584 -816 R0
SYMATTR InstName R1
SYMATTR Value 169k
SYMBOL res -1584 -448 R0
SYMATTR InstName R2
SYMATTR Value 11.5k
SYMBOL res -1584 -304 R0
SYMATTR InstName R3
SYMATTR Value 10k
SYMBOL zener -1424 -544 R180
WINDOW 0 24 64 Left 2
WINDOW 3 24 0 Left 2
SYMATTR InstName D1
SYMATTR Value 1N5373B
SYMBOL res -1296 -752 R0
SYMATTR InstName R4
SYMATTR Value 2.2k
SYMBOL nmos -1200 -864 R270
SYMATTR InstName M1
SYMATTR Value FDB33N25
SYMBOL nmos -720 -864 M270
SYMATTR InstName M2
SYMATTR Value FDB3682
SYMBOL res -1136 -800 R0
SYMATTR InstName R5
SYMATTR Value 10
SYMBOL cap -1120 -672 R90
WINDOW 0 0 32 VBottom 2
WINDOW 3 32 32 VTop 2
SYMATTR InstName C2
SYMATTR Value 6.8nf
SYMBOL res -496 -928 R90
WINDOW 0 0 56 VBottom 2
WINDOW 3 32 56 VTop 2
SYMATTR InstName R6
SYMATTR Value .005
SYMBOL cap -240 -864 R0
SYMATTR InstName C3
SYMATTR Value 22µ
SYMBOL res -320 -448 R0
SYMATTR InstName R7
SYMATTR Value 45k
SYMBOL res -320 -368 R0
SYMATTR InstName R8
SYMATTR Value 4.99k
SYMBOL voltage -1712 -848 R0
WINDOW 123 0 0 Left 2
WINDOW 39 0 0 Left 2
SYMATTR InstName V1
SYMATTR Value 12
SYMBOL PowerProducts\\LT3844 560 -288 R0
SYMATTR InstName U2
SYMBOL res 96 -624 R0
SYMATTR InstName R10
SYMATTR Value 4.7m
SYMBOL diode 832 -624 R0
SYMATTR InstName D2
SYMATTR Value 1N4148
SYMBOL cap 608 48 R0
SYMATTR InstName C5
SYMATTR Value 2.2µ
SYMBOL res 1072 -672 R90
WINDOW 0 0 56 VBottom 2
WINDOW 3 32 56 VTop 2
SYMATTR InstName R11
SYMATTR Value .01
SYMBOL ind 1120 -672 R0
SYMATTR InstName L1
SYMATTR Value 15µ
SYMBOL nmos 1088 -416 R0
SYMATTR InstName M3
SYMATTR Value FDS6630A
SYMBOL cap 1440 -384 R0
SYMATTR InstName C6
SYMATTR Value 470µ
SYMBOL res 416 240 R90
WINDOW 0 0 56 VBottom 2
WINDOW 3 32 56 VTop 2
SYMATTR InstName R12
SYMATTR Value 150k
SYMBOL cap 192 -416 R0
SYMATTR InstName C7
SYMATTR Value 4700p
SYMBOL res 336 -256 R90
WINDOW 0 0 56 VBottom 2
WINDOW 3 32 56 VTop 2
SYMATTR InstName R13
SYMATTR Value 33.2k
SYMBOL res 160 240 R0
SYMATTR InstName R14
SYMATTR Value 10k
SYMBOL cap 0 16 R0
SYMATTR InstName C8
SYMATTR Value 120p
SYMBOL res 112 -160 R0
SYMATTR InstName R15
SYMATTR Value 40k
SYMBOL cap 112 16 R0
SYMATTR InstName C9
SYMATTR Value 4700p
SYMBOL schottky 1264 -432 R270
WINDOW 0 36 32 VTop 2
WINDOW 3 -4 32 VBottom 2
SYMATTR InstName D3
SYMATTR Value MBRS360
SYMATTR Description Zener Diode
SYMATTR Type zener
SYMBOL cap 560 -880 R90
WINDOW 0 0 32 VBottom 2
WINDOW 3 32 32 VTop 2
SYMATTR InstName C10
SYMATTR Value 100µ
SYMBOL res 1744 -464 R0
SYMATTR InstName R17
SYMATTR Value 6
SYMBOL nmos 784 -960 M90
SYMATTR InstName M4
SYMATTR Value Si7370DP
SYMBOL res 608 -896 R270
WINDOW 0 32 56 VTop 2
WINDOW 3 0 56 VBottom 2
SYMATTR InstName R9
SYMATTR Value 60
SYMBOL voltage 864 -976 R180
WINDOW 0 24 96 Left 2
WINDOW 3 24 16 Left 2
WINDOW 123 0 0 Left 2
WINDOW 39 0 0 Left 2
SYMATTR InstName V2
SYMATTR Value 5
SYMBOL voltage 1968 -240 R270
WINDOW 0 32 56 VTop 2
WINDOW 3 -32 56 VBottom 2
WINDOW 123 0 0 Left 2
WINDOW 39 0 0 Left 2
SYMATTR InstName V3
SYMATTR Value PULSE(0 12 .015)
SYMBOL nmos 1808 -320 M0
SYMATTR InstName M5
SYMATTR Value FDB33N25
TEXT -1616 -64 Left 2 !.tran 5
